LIG
". "

 24 23  0  0  1  0            999 V2000
   -2.2600    1.7070    0.9270 N   0  3   0  0  0  0  0  0  0  0  0  0
   -2.2140    0.5390    0.0010 C   0  0   0  0  0  0  0  0  0  0  0  0
   -3.6140    0.2930   -0.5950 C   0  0   0  0  0  0  0  0  0  0  0  0
   -3.6790    0.0900   -1.8280 O   0  0   0  0  0  0  0  0  0  0  0  0
   -1.6990   -0.7110    0.7120 C   0  0   0  0  0  0  0  0  0  0  0  0
    0.0570   -0.7020    1.1510 S   0  0   0  0  0  0  0  0  0  0  0  0
   -4.5910    0.3120    0.1920 O   0  5   0  0  0  0  0  0  0  0  0  0
    0.8340   -1.2750   -0.3830 C   0  0   0  0  0  0  0  0  0  0  0  0
    2.3390   -1.1840   -0.2850 C   0  0   0  0  0  0  0  0  0  0  0  0
    3.0040   -2.2090   -0.0850 O   0  0   0  0  0  0  0  0  0  0  0  0
    2.8670    0.0380   -0.4290 N   0  0   0  0  0  0  0  0  0  0  0  0
    4.2910    0.3340   -0.3840 C   0  0   0  0  0  0  0  0  0  0  0  0
   -1.4430    1.8710    1.2720 H   0  0   0  0  0  0  0  0  0  0  0  0
   -2.8450    1.5540    1.5970 H   0  0   0  0  0  0  0  0  0  0  0  0
   -2.5290    2.4390    0.4740 H   0  0   0  0  0  0  0  0  0  0  0  0
   -1.5960    0.7660   -0.7400 H   0  0   0  0  0  0  0  0  0  0  0  0
   -1.8670   -1.4890    0.1390 H   0  0   0  0  0  0  0  0  0  0  0  0
   -2.2170   -0.8330    1.5360 H   0  0   0  0  0  0  0  0  0  0  0  0
    0.5740   -2.1880   -0.5340 H   0  0   0  0  0  0  0  0  0  0  0  0
    0.5230   -0.7250   -1.1070 H   0  0   0  0  0  0  0  0  0  0  0  0
    2.3430    0.7260   -0.5600 H   0  0   0  0  0  0  0  0  0  0  0  0
    4.7840   -0.4240   -0.0350 H   0  0   0  0  0  0  0  0  0  0  0  0
    4.4430    1.1010    0.1910 H   0  0   0  0  0  0  0  0  0  0  0  0
    4.6080    0.5380   -1.2780 H   0  0   0  0  0  0  0  0  0  0  0  0
  1  2  1  0  0  0  0
  2  3  1  0  0  0  0
  2  5  1  0  0  0  0
  3  4  2  0  0  0  0
  3  7  1  0  0  0  0
  5  6  1  0  0  0  0
  8  9  1  0  0  0  0
  9 10  2  0  0  0  0
  9 11  1  0  0  0  0
 11 12  1  0  0  0  0
  6  8  1  0  0  0  0
  1 13  1  0  0  0  0
  1 14  1  0  0  0  0
  1 15  1  0  0  0  0
  2 16  1  0  0  0  0
  5 17  1  0  0  0  0
  5 18  1  0  0  0  0
  8 19  1  0  0  0  0
  8 20  1  0  0  0  0
 11 21  1  0  0  0  0
 12 22  1  0  0  0  0
 12 23  1  0  0  0  0
 12 24  1  0  0  0  0
M CHG  2  1  1  7  -1 
M  END
