LIG
".           "

 22 22  0  0  1  0            999 V2000
   22.7130   13.5170   37.6950 N   0  3   0  0  0  0  0  0  0  0  0  0
   22.3730   13.6850   39.1370 C   0  0   0  0  0  0  0  0  0  0  0  0
   22.0220   15.1530   39.4400 C   0  0   0  0  0  0  0  0  0  0  0  0
   22.8380   16.0240   39.0650 O   0  0   0  0  0  0  0  0  0  0  0  0
   23.5140   13.2250   40.0380 C   0  0   0  0  0  0  0  0  0  0  0  0
   25.0700   14.1060   39.7420 S   0  0   0  0  0  0  0  0  0  0  0  0
   20.9450   15.3700   40.0380 O   0  5   0  0  0  0  0  0  0  0  0  0
    1.2590    0.1360    0.2430 C   0  0   0  0  0  0  0  0  0  0  0  0
    0.0370   -0.1190   -0.5310 C   0  0   0  0  0  0  0  0  0  0  0  0
   -1.3620    0.1500   -0.1010 C   0  0   0  0  0  0  0  0  0  0  0  0
   -0.8620   -1.1910   -0.1120 O   0  0   0  0  0  0  0  0  0  0  0  0
   23.6050   13.4330   37.5880 H   0  0   0  0  0  0  0  0  0  0  0  0
   22.4300   14.2270   37.2140 H   0  0   0  0  0  0  0  0  0  0  0  0
   22.3080   12.7770   37.3750 H   0  0   0  0  0  0  0  0  0  0  0  0
   21.5770   13.1270   39.3280 H   0  0   0  0  0  0  0  0  0  0  0  0
   23.6680   12.2650   39.8980 H   0  0   0  0  0  0  0  0  0  0  0  0
   23.2550   13.3570   40.9770 H   0  0   0  0  0  0  0  0  0  0  0  0
    2.0390   -0.1350   -0.2800 H   0  0   0  0  0  0  0  0  0  0  0  0
    1.2300   -0.3770    1.0760 H   0  0   0  0  0  0  0  0  0  0  0  0
    1.3200    1.0900    0.4500 H   0  0   0  0  0  0  0  0  0  0  0  0
    0.1720   -0.0720   -1.5200 H   0  0   0  0  0  0  0  0  0  0  0  0
   -2.0120    0.3970   -0.7860 H   0  0   0  0  0  0  0  0  0  0  0  0
  1  2  1  0  0  0  0
  2  3  1  0  0  0  0
  2  5  1  0  0  0  0
  3  4  2  0  0  0  0
  3  7  1  0  0  0  0
  5  6  1  0  0  0  0
  1 12  1  0  0  0  0
  1 13  1  0  0  0  0
  1 14  1  0  0  0  0
  2 15  1  0  0  0  0
  5 16  1  0  0  0  0
  5 17  1  0  0  0  0
  8  9  1  0  0  0  0
  9 10  1  0  0  0  0
 10 11  1  0  0  0  0
  9 11  1  0  0  0  0
  8 18  1  0  0  0  0
  8 19  1  0  0  0  0
  8 20  1  0  0  0  0
  9 21  1  0  0  0  0
 10 22  1  0  0  0  0
  6 10  1  0  0  0  0
M CHG  2  1  1  7  -1 
M  END
