LIG
".           "

 24 23  0  0  1  0            999 V2000
   22.7130   13.5170   37.6950 N   0  3   0  0  0  0  0  0  0  0  0  0
   22.3730   13.6850   39.1370 C   0  0   0  0  0  0  0  0  0  0  0  0
   22.0220   15.1530   39.4400 C   0  0   0  0  0  0  0  0  0  0  0  0
   22.8380   16.0240   39.0650 O   0  0   0  0  0  0  0  0  0  0  0  0
   23.5140   13.2250   40.0380 C   0  0   0  0  0  0  0  0  0  0  0  0
   25.0700   14.1060   39.7420 S   0  0   0  0  0  0  0  0  0  0  0  0
   20.9450   15.3700   40.0380 O   0  5   0  0  0  0  0  0  0  0  0  0
    1.9190   -0.0430    0.0300 C   0  0   0  0  0  0  0  0  0  0  0  0
    0.4770    0.2300    0.4290 C   0  0   0  0  0  0  0  0  0  0  0  0
    0.3130    0.9130    1.4590 O   0  0   0  0  0  0  0  0  0  0  0  0
   -0.5280   -0.2640   -0.3350 N   0  0   0  0  0  0  0  0  0  0  0  0
   -1.9450   -0.0780   -0.0580 C   0  0   0  0  0  0  0  0  0  0  0  0
   23.6050   13.4330   37.5880 H   0  0   0  0  0  0  0  0  0  0  0  0
   22.4300   14.2270   37.2140 H   0  0   0  0  0  0  0  0  0  0  0  0
   22.3080   12.7770   37.3750 H   0  0   0  0  0  0  0  0  0  0  0  0
   21.5770   13.1270   39.3280 H   0  0   0  0  0  0  0  0  0  0  0  0
   23.6680   12.2650   39.8980 H   0  0   0  0  0  0  0  0  0  0  0  0
   23.2550   13.3570   40.9770 H   0  0   0  0  0  0  0  0  0  0  0  0
    2.4560   -0.0870    0.8390 H   0  0   0  0  0  0  0  0  0  0  0  0
    1.9560   -0.9140   -0.4000 H   0  0   0  0  0  0  0  0  0  0  0  0
   -0.3350   -0.7290   -1.0490 H   0  0   0  0  0  0  0  0  0  0  0  0
   -2.0680    0.3350    0.8110 H   0  0   0  0  0  0  0  0  0  0  0  0
   -2.3910   -0.9390   -0.0660 H   0  0   0  0  0  0  0  0  0  0  0  0
   -2.3360    0.4900   -0.7400 H   0  0   0  0  0  0  0  0  0  0  0  0
  1  2  1  0  0  0  0
  2  3  1  0  0  0  0
  2  5  1  0  0  0  0
  3  4  2  0  0  0  0
  3  7  1  0  0  0  0
  5  6  1  0  0  0  0
  1 13  1  0  0  0  0
  1 14  1  0  0  0  0
  1 15  1  0  0  0  0
  2 16  1  0  0  0  0
  5 17  1  0  0  0  0
  5 18  1  0  0  0  0
  8  9  1  0  0  0  0
  9 10  2  0  0  0  0
  9 11  1  0  0  0  0
 11 12  1  0  0  0  0
  8 19  1  0  0  0  0
  8 20  1  0  0  0  0
 11 21  1  0  0  0  0
 12 22  1  0  0  0  0
 12 23  1  0  0  0  0
 12 24  1  0  0  0  0
  6  8  1  0  0  0  0
M CHG  2  1  1  7  -1 
M  END
