LIG
". "

 22 22  0  0  1  0            999 V2000
   -2.6280    1.2670   -0.5630 N   0  3   0  0  0  0  0  0  0  0  0  0
   -2.0330    0.0370    0.0300 C   0  0   0  0  0  0  0  0  0  0  0  0
   -3.1530   -0.8390    0.6230 C   0  0   0  0  0  0  0  0  0  0  0  0
   -3.1460   -2.0540    0.3210 O   0  0   0  0  0  0  0  0  0  0  0  0
   -0.9450    0.3020    1.0610 C   0  0   0  0  0  0  0  0  0  0  0  0
    0.6250    0.8020    0.2940 S   0  0   0  0  0  0  0  0  0  0  0  0
   -3.9930   -0.2790    1.3660 O   0  5   0  0  0  0  0  0  0  0  0  0
    3.8160    0.4300    0.3350 C   0  0   0  0  0  0  0  0  0  0  0  0
    2.9720   -0.7090   -0.1560 C   0  0   0  0  0  0  0  0  0  0  0  0
    1.4990   -0.6730   -0.2890 C   0  0   0  0  0  0  0  0  0  0  0  0
    2.1250   -1.3600    0.8230 O   0  0   0  0  0  0  0  0  0  0  0  0
   -1.9850    1.7820   -0.9320 H   0  0   0  0  0  0  0  0  0  0  0  0
   -3.0610    1.7400    0.0720 H   0  0   0  0  0  0  0  0  0  0  0  0
   -3.2180    1.0390   -1.2060 H   0  0   0  0  0  0  0  0  0  0  0  0
   -1.6110   -0.4700   -0.7100 H   0  0   0  0  0  0  0  0  0  0  0  0
   -0.7970   -0.5100    1.5940 H   0  0   0  0  0  0  0  0  0  0  0  0
   -1.2450    1.0110    1.6710 H   0  0   0  0  0  0  0  0  0  0  0  0
    4.7580    0.1660    0.3290 H   0  0   0  0  0  0  0  0  0  0  0  0
    3.5510    0.6640    1.2470 H   0  0   0  0  0  0  0  0  0  0  0  0
    3.6920    1.2050   -0.2480 H   0  0   0  0  0  0  0  0  0  0  0  0
    3.4510   -1.3310   -0.7620 H   0  0   0  0  0  0  0  0  0  0  0  0
    1.0480   -1.2190   -0.9680 H   0  0   0  0  0  0  0  0  0  0  0  0
  1  2  1  0  0  0  0
  2  3  1  0  0  0  0
  2  5  1  0  0  0  0
  3  4  2  0  0  0  0
  3  7  1  0  0  0  0
  5  6  1  0  0  0  0
  8  9  1  0  0  0  0
  9 10  1  0  0  0  0
 10 11  1  0  0  0  0
  9 11  1  0  0  0  0
  6 10  1  0  0  0  0
  1 12  1  0  0  0  0
  1 13  1  0  0  0  0
  1 14  1  0  0  0  0
  2 15  1  0  0  0  0
  5 16  1  0  0  0  0
  5 17  1  0  0  0  0
  8 18  1  0  0  0  0
  8 19  1  0  0  0  0
  8 20  1  0  0  0  0
  9 21  1  0  0  0  0
 10 22  1  0  0  0  0
M CHG  2  1  1  7  -1 
M  END
