LIG
". "

 69 73  0  0  1  0            999 V2000
    8.7080    2.4260    1.4020 N   0  3   0  0  0  0  0  0  0  0  0  0
    7.2730    2.8070    1.5540 C   0  0   0  0  0  0  0  0  0  0  0  0
    7.1730    4.1990    2.1990 C   0  0   0  0  0  0  0  0  0  0  0  0
    7.9000    4.4310    3.1940 O   0  0   0  0  0  0  0  0  0  0  0  0
    6.5010    1.7690    2.3760 C   0  0   0  0  0  0  0  0  0  0  0  0
    6.1210    0.2420    1.4810 S   0  0   0  0  0  0  0  0  0  0  0  0
    6.3660    5.0060    1.6850 O   0  5   0  0  0  0  0  0  0  0  0  0
    0.2410   -0.3750    2.7400 N   0  0   0  0  0  0  0  0  0  0  0  0
    1.2890   -0.9750    2.1720 C   0  0   0  0  0  0  0  0  0  0  0  0
    1.3810   -1.5030    0.9600 N   0  0   0  0  0  0  0  0  0  0  0  0
    0.2530   -1.3890    0.2390 C   0  0   0  0  0  0  0  0  0  0  0  0
   -0.9350   -0.7740    0.6910 C   0  0   0  0  0  0  0  0  0  0  0  0
   -0.8990   -0.2750    2.0280 C   0  0   0  0  0  0  0  0  0  0  0  0
    4.8580    0.7450    0.3580 C   0  0   0  0  0  0  0  0  0  0  0  0
   -1.9320    0.3180    2.6430 N   0  0   0  0  0  0  0  0  0  0  0  0
    4.9150   -2.1660   -0.0110 O   0  0   0  0  0  0  0  0  0  0  0  0
    4.1270   -0.1230   -0.6080 C   0  0   0  0  0  0  0  0  0  0  0  0
  -10.2270    2.9720    0.5340 C   0  0   0  0  0  0  0  0  0  0  0  0
  -10.3040    2.5490   -0.7710 C   0  0   0  0  0  0  0  0  0  0  0  0
   -9.1260    2.6500    1.2880 C   0  0   0  0  0  0  0  0  0  0  0  0
   -9.2870    1.7930   -1.3300 C   0  0   0  0  0  0  0  0  0  0  0  0
   -8.0960    1.8990    0.7480 C   0  0   0  0  0  0  0  0  0  0  0  0
   -4.9920    1.1680   -0.2590 C   0  0   0  0  0  0  0  0  0  0  0  0
   -5.4530   -0.7990   -1.5390 C   0  0   0  0  0  0  0  0  0  0  0  0
   -3.6900    0.7390   -0.0770 C   0  0   0  0  0  0  0  0  0  0  0  0
   -4.1500   -1.2240   -1.3520 C   0  0   0  0  0  0  0  0  0  0  0  0
    2.6010   -4.4850   -2.1350 C   0  0   0  0  0  0  0  0  0  0  0  0
    1.3790   -3.9130   -1.4140 C   0  0   0  0  0  0  0  0  0  0  0  0
    3.7850   -3.5020   -2.1740 C   0  0   0  0  0  0  0  0  0  0  0  0
    2.1750   -1.6710   -2.3560 C   0  0   0  0  0  0  0  0  0  0  0  0
   -1.2310   -1.5110   -1.4310 N   0  0   0  0  0  0  0  0  0  0  0  0
   -7.2160    0.7160   -1.2370 O   0  0   0  0  0  0  0  0  0  0  0  0
    4.1570   -1.5150   -0.7410 C   0  0   0  0  0  0  0  0  0  0  0  0
   -8.1680    1.5120   -0.5770 C   0  0   0  0  0  0  0  0  0  0  0  0
   -5.8660    0.4060   -1.0080 C   0  0   0  0  0  0  0  0  0  0  0  0
   -3.2360   -0.4490   -0.6390 C   0  0   0  0  0  0  0  0  0  0  0  0
   -1.8540   -0.9240   -0.4140 C   0  0   0  0  0  0  0  0  0  0  0  0
    0.9660   -2.5240   -1.9620 C   0  0   0  0  0  0  0  0  0  0  0  0
    0.0510   -1.8260   -1.0330 N   0  0   0  0  0  0  0  0  0  0  0  0
    3.4150   -2.1430   -1.7060 N   0  0   0  0  0  0  0  0  0  0  0  0
    8.7820    1.6170    1.0090 H   0  0   0  0  0  0  0  0  0  0  0  0
    9.1160    2.4080    2.2070 H   0  0   0  0  0  0  0  0  0  0  0  0
    9.1270    3.0330    0.8820 H   0  0   0  0  0  0  0  0  0  0  0  0
    6.8810    2.8590    0.6490 H   0  0   0  0  0  0  0  0  0  0  0  0
    5.6600    2.1710    2.6800 H   0  0   0  0  0  0  0  0  0  0  0  0
    7.0300    1.5460    3.1710 H   0  0   0  0  0  0  0  0  0  0  0  0
    2.0680   -1.0320    2.7050 H   0  0   0  0  0  0  0  0  0  0  0  0
    4.6130    1.6530    0.3650 H   0  0   0  0  0  0  0  0  0  0  0  0
   -1.8060    0.7510    3.4000 H   0  0   0  0  0  0  0  0  0  0  0  0
   -2.7480    0.1840    2.3740 H   0  0   0  0  0  0  0  0  0  0  0  0
    3.6150    0.3640   -1.2210 H   0  0   0  0  0  0  0  0  0  0  0  0
  -10.9280    3.4810    0.9100 H   0  0   0  0  0  0  0  0  0  0  0  0
  -11.0600    2.7690   -1.2920 H   0  0   0  0  0  0  0  0  0  0  0  0
   -9.0690    2.9390    2.1850 H   0  0   0  0  0  0  0  0  0  0  0  0
   -9.3400    1.5130   -2.2310 H   0  0   0  0  0  0  0  0  0  0  0  0
   -7.3420    1.6850    1.2710 H   0  0   0  0  0  0  0  0  0  0  0  0
   -5.2680    1.9900    0.1040 H   0  0   0  0  0  0  0  0  0  0  0  0
   -6.0540   -1.3280   -2.0340 H   0  0   0  0  0  0  0  0  0  0  0  0
   -3.0960    1.2820    0.4060 H   0  0   0  0  0  0  0  0  0  0  0  0
   -3.8770   -2.0420   -1.7280 H   0  0   0  0  0  0  0  0  0  0  0  0
    2.8850   -5.3120   -1.6790 H   0  0   0  0  0  0  0  0  0  0  0  0
    2.3500   -4.7250   -3.0570 H   0  0   0  0  0  0  0  0  0  0  0  0
    1.5790   -3.8390   -0.4550 H   0  0   0  0  0  0  0  0  0  0  0  0
    0.6250   -4.5350   -1.5180 H   0  0   0  0  0  0  0  0  0  0  0  0
    4.1190   -3.4420   -3.0990 H   0  0   0  0  0  0  0  0  0  0  0  0
    4.5140   -3.8650   -1.6230 H   0  0   0  0  0  0  0  0  0  0  0  0
    2.2800   -1.7000   -3.3290 H   0  0   0  0  0  0  0  0  0  0  0  0
    1.9910   -0.7510   -2.1110 H   0  0   0  0  0  0  0  0  0  0  0  0
    0.4630   -2.6830   -2.8070 H   0  0   0  0  0  0  0  0  0  0  0  0
  1  2  1  0  0  0  0
  2  3  1  0  0  0  0
  2  5  1  0  0  0  0
  3  4  2  0  0  0  0
  3  7  1  0  0  0  0
  5  6  1  0  0  0  0
  8  9  2  0  0  0  0
  8 13  1  0  0  0  0
  9 10  1  0  0  0  0
 10 11  2  0  0  0  0
 11 39  1  0  0  0  0
 11 12  1  0  0  0  0
 12 13  2  0  0  0  0
 12 37  1  0  0  0  0
 13 15  1  0  0  0  0
 14 17  2  0  0  0  0
 16 33  2  0  0  0  0
 17 33  1  0  0  0  0
 18 19  2  0  0  0  0
 18 20  1  0  0  0  0
 19 21  1  0  0  0  0
 20 22  2  0  0  0  0
 21 34  2  0  0  0  0
 22 34  1  0  0  0  0
 23 25  2  0  0  0  0
 23 35  1  0  0  0  0
 24 35  2  0  0  0  0
 24 26  1  0  0  0  0
 25 36  1  0  0  0  0
 26 36  2  0  0  0  0
 27 29  1  0  0  0  0
 27 28  1  0  0  0  0
 28 38  1  0  0  0  0
 29 40  1  0  0  0  0
 30 40  1  0  0  0  0
 30 38  1  0  0  0  0
 31 39  1  0  0  0  0
 31 37  2  0  0  0  0
 32 35  1  0  0  0  0
 32 34  1  0  0  0  0
 33 40  1  0  0  0  0
 36 37  1  0  0  0  0
 38 39  1  0  0  0  0
  6 14  1  0  0  0  0
  1 41  1  0  0  0  0
  1 42  1  0  0  0  0
  1 43  1  0  0  0  0
  2 44  1  0  0  0  0
  5 45  1  0  0  0  0
  5 46  1  0  0  0  0
  9 47  1  0  0  0  0
 14 48  1  0  0  0  0
 15 49  1  0  0  0  0
 15 50  1  0  0  0  0
 17 51  1  0  0  0  0
 18 52  1  0  0  0  0
 19 53  1  0  0  0  0
 20 54  1  0  0  0  0
 21 55  1  0  0  0  0
 22 56  1  0  0  0  0
 23 57  1  0  0  0  0
 24 58  1  0  0  0  0
 25 59  1  0  0  0  0
 26 60  1  0  0  0  0
 27 61  1  0  0  0  0
 27 62  1  0  0  0  0
 28 63  1  0  0  0  0
 28 64  1  0  0  0  0
 29 65  1  0  0  0  0
 29 66  1  0  0  0  0
 30 67  1  0  0  0  0
 30 68  1  0  0  0  0
 38 69  1  0  0  0  0
M CHG  2  1  1  7  -1 
M  END
