LIG
".           "

 69 73  0  0  1  0            999 V2000
   22.7130   13.5170   37.6950 N   0  3   0  0  0  0  0  0  0  0  0  0
   22.3730   13.6850   39.1370 C   0  0   0  0  0  0  0  0  0  0  0  0
   22.0220   15.1530   39.4400 C   0  0   0  0  0  0  0  0  0  0  0  0
   22.8380   16.0240   39.0650 O   0  0   0  0  0  0  0  0  0  0  0  0
   23.5140   13.2250   40.0380 C   0  0   0  0  0  0  0  0  0  0  0  0
   25.0700   14.1060   39.7420 S   0  0   0  0  0  0  0  0  0  0  0  0
   20.9450   15.3700   40.0380 O   0  5   0  0  0  0  0  0  0  0  0  0
   -1.2230   -4.7700   -0.6620 N   0  0   0  0  0  0  0  0  0  0  0  0
   -2.4620   -4.2710   -0.6500 C   0  0   0  0  0  0  0  0  0  0  0  0
   -2.8470   -3.0210   -0.4390 N   0  0   0  0  0  0  0  0  0  0  0  0
   -1.8250   -2.1810   -0.2010 C   0  0   0  0  0  0  0  0  0  0  0  0
   -0.4630   -2.5530   -0.1690 C   0  0   0  0  0  0  0  0  0  0  0  0
   -0.1930   -3.9270   -0.4390 C   0  0   0  0  0  0  0  0  0  0  0  0
   -4.7880    3.4410   -3.8220 C   0  0   0  0  0  0  0  0  0  0  0  0
    1.0350   -4.4610   -0.4770 N   0  0   0  0  0  0  0  0  0  0  0  0
   -5.9680    3.0630   -1.3230 O   0  0   0  0  0  0  0  0  0  0  0  0
   -4.5920    2.3680   -3.1090 C   0  0   0  0  0  0  0  0  0  0  0  0
    8.1050    3.2330    1.9660 C   0  0   0  0  0  0  0  0  0  0  0  0
    8.6060    2.0070    1.6040 C   0  0   0  0  0  0  0  0  0  0  0  0
    6.7480    3.4030    2.0910 C   0  0   0  0  0  0  0  0  0  0  0  0
    7.7560    0.9370    1.3760 C   0  0   0  0  0  0  0  0  0  0  0  0
    5.8810    2.3480    1.8620 C   0  0   0  0  0  0  0  0  0  0  0  0
    3.4430    0.6510    0.3050 C   0  0   0  0  0  0  0  0  0  0  0  0
    3.8220   -1.5120    1.2530 C   0  0   0  0  0  0  0  0  0  0  0  0
    2.1310    0.3040    0.0460 C   0  0   0  0  0  0  0  0  0  0  0  0
    2.5060   -1.8530    0.9930 C   0  0   0  0  0  0  0  0  0  0  0  0
   -5.2170    0.6070    1.3960 C   0  0   0  0  0  0  0  0  0  0  0  0
   -3.9790   -0.2920    1.3480 C   0  0   0  0  0  0  0  0  0  0  0  0
   -5.9380    0.6360    0.0420 C   0  0   0  0  0  0  0  0  0  0  0  0
   -3.8830    0.0890   -1.1590 C   0  0   0  0  0  0  0  0  0  0  0  0
   -0.6530   -0.3400    0.2620 N   0  0   0  0  0  0  0  0  0  0  0  0
    5.6310   -0.0250    1.2370 O   0  0   0  0  0  0  0  0  0  0  0  0
   -5.2120    2.1830   -1.7600 C   0  0   0  0  0  0  0  0  0  0  0  0
    6.3950    1.1320    1.4590 C   0  0   0  0  0  0  0  0  0  0  0  0
    4.2900   -0.2640    0.8980 C   0  0   0  0  0  0  0  0  0  0  0  0
    1.6530   -0.9760    0.3290 C   0  0   0  0  0  0  0  0  0  0  0  0
    0.2330   -1.3150    0.0950 C   0  0   0  0  0  0  0  0  0  0  0  0
   -3.0790    0.0480    0.1420 C   0  0   0  0  0  0  0  0  0  0  0  0
   -1.9100   -0.8490    0.0590 N   0  0   0  0  0  0  0  0  0  0  0  0
   -5.0130    1.0310   -1.0490 N   0  0   0  0  0  0  0  0  0  0  0  0
   23.6050   13.4330   37.5880 H   0  0   0  0  0  0  0  0  0  0  0  0
   22.4300   14.2270   37.2140 H   0  0   0  0  0  0  0  0  0  0  0  0
   22.3080   12.7770   37.3750 H   0  0   0  0  0  0  0  0  0  0  0  0
   21.5770   13.1270   39.3280 H   0  0   0  0  0  0  0  0  0  0  0  0
   23.6680   12.2650   39.8980 H   0  0   0  0  0  0  0  0  0  0  0  0
   23.2550   13.3570   40.9770 H   0  0   0  0  0  0  0  0  0  0  0  0
   -3.1550   -4.8930   -0.8160 H   0  0   0  0  0  0  0  0  0  0  0  0
   -5.3390    4.1520   -3.5250 H   0  0   0  0  0  0  0  0  0  0  0  0
    1.1370   -5.3360   -0.5010 H   0  0   0  0  0  0  0  0  0  0  0  0
    1.7370   -3.9570   -0.5900 H   0  0   0  0  0  0  0  0  0  0  0  0
   -4.0570    1.6910   -3.4710 H   0  0   0  0  0  0  0  0  0  0  0  0
    8.6910    3.9560    2.1280 H   0  0   0  0  0  0  0  0  0  0  0  0
    9.5380    1.8870    1.5170 H   0  0   0  0  0  0  0  0  0  0  0  0
    6.4010    4.2450    2.3390 H   0  0   0  0  0  0  0  0  0  0  0  0
    8.1040    0.0980    1.1150 H   0  0   0  0  0  0  0  0  0  0  0  0
    4.9500    2.4730    1.9450 H   0  0   0  0  0  0  0  0  0  0  0  0
    3.7600    1.5010    0.0590 H   0  0   0  0  0  0  0  0  0  0  0  0
    4.3940   -2.1320    1.6700 H   0  0   0  0  0  0  0  0  0  0  0  0
    1.5730    0.9260   -0.3870 H   0  0   0  0  0  0  0  0  0  0  0  0
    2.2020   -2.7070    1.2310 H   0  0   0  0  0  0  0  0  0  0  0  0
   -5.8350    0.2750    2.0880 H   0  0   0  0  0  0  0  0  0  0  0  0
   -4.9480    1.5230    1.6430 H   0  0   0  0  0  0  0  0  0  0  0  0
   -4.2610   -1.2320    1.2890 H   0  0   0  0  0  0  0  0  0  0  0  0
   -3.4640   -0.1800    2.1780 H   0  0   0  0  0  0  0  0  0  0  0  0
   -6.6930    1.2640    0.0940 H   0  0   0  0  0  0  0  0  0  0  0  0
   -6.3090   -0.2560   -0.1490 H   0  0   0  0  0  0  0  0  0  0  0  0
   -3.2870    0.3520   -1.8780 H   0  0   0  0  0  0  0  0  0  0  0  0
   -4.2180   -0.8080   -1.3610 H   0  0   0  0  0  0  0  0  0  0  0  0
   -2.7330    0.9730    0.2800 H   0  0   0  0  0  0  0  0  0  0  0  0
  1  2  1  0  0  0  0
  2  3  1  0  0  0  0
  2  5  1  0  0  0  0
  3  4  2  0  0  0  0
  3  7  1  0  0  0  0
  5  6  1  0  0  0  0
  1 41  1  0  0  0  0
  1 42  1  0  0  0  0
  1 43  1  0  0  0  0
  2 44  1  0  0  0  0
  5 45  1  0  0  0  0
  5 46  1  0  0  0  0
  8  9  2  0  0  0  0
  8 13  1  0  0  0  0
  9 10  1  0  0  0  0
 10 11  2  0  0  0  0
 11 39  1  0  0  0  0
 11 12  1  0  0  0  0
 12 13  2  0  0  0  0
 12 37  1  0  0  0  0
 13 15  1  0  0  0  0
 14 17  2  0  0  0  0
 16 33  2  0  0  0  0
 17 33  1  0  0  0  0
 18 19  2  0  0  0  0
 18 20  1  0  0  0  0
 19 21  1  0  0  0  0
 20 22  2  0  0  0  0
 21 34  2  0  0  0  0
 22 34  1  0  0  0  0
 23 25  2  0  0  0  0
 23 35  1  0  0  0  0
 24 35  2  0  0  0  0
 24 26  1  0  0  0  0
 25 36  1  0  0  0  0
 26 36  2  0  0  0  0
 27 29  1  0  0  0  0
 27 28  1  0  0  0  0
 28 38  1  0  0  0  0
 29 40  1  0  0  0  0
 30 40  1  0  0  0  0
 30 38  1  0  0  0  0
 31 39  1  0  0  0  0
 31 37  2  0  0  0  0
 32 35  1  0  0  0  0
 32 34  1  0  0  0  0
 33 40  1  0  0  0  0
 36 37  1  0  0  0  0
 38 39  1  0  0  0  0
  9 47  1  0  0  0  0
 14 48  1  0  0  0  0
 15 49  1  0  0  0  0
 15 50  1  0  0  0  0
 17 51  1  0  0  0  0
 18 52  1  0  0  0  0
 19 53  1  0  0  0  0
 20 54  1  0  0  0  0
 21 55  1  0  0  0  0
 22 56  1  0  0  0  0
 23 57  1  0  0  0  0
 24 58  1  0  0  0  0
 25 59  1  0  0  0  0
 26 60  1  0  0  0  0
 27 61  1  0  0  0  0
 27 62  1  0  0  0  0
 28 63  1  0  0  0  0
 28 64  1  0  0  0  0
 29 65  1  0  0  0  0
 29 66  1  0  0  0  0
 30 67  1  0  0  0  0
 30 68  1  0  0  0  0
 38 69  1  0  0  0  0
  6 14  1  0  0  0  0
M CHG  2  1  1  7  -1 
M  END
